Version 4
SHEET 1 1720 1076
WIRE 1200 -16 1200 -64
WIRE 1088 112 880 112
WIRE 1200 112 1200 64
WIRE 1200 112 1088 112
WIRE 1088 144 1088 112
WIRE 1200 176 1200 112
WIRE 1376 176 1328 176
WIRE 880 192 880 112
WIRE 928 192 880 192
WIRE 1328 192 1328 176
WIRE 1008 208 992 208
WIRE 1040 208 1008 208
WIRE 1376 208 1376 176
WIRE 928 224 848 224
WIRE 1200 224 1200 176
WIRE 1088 272 1088 240
WIRE 1136 272 1088 272
WIRE 848 304 848 224
WIRE 1088 320 1088 272
WIRE 848 416 848 384
WIRE 1088 432 1088 400
WIRE 1200 432 1200 320
WIRE 1200 432 1088 432
WIRE 1088 464 1088 432
WIRE 1088 576 1088 544
FLAG 1088 272 B
FLAG 1200 176 C
FLAG 1008 208 G
FLAG 1376 96 Vpp
FLAG 1328 192 0
FLAG 1376 288 Vnn
FLAG 1200 432 E
FLAG 848 416 0
FLAG 1088 576 Vnn
FLAG 1200 -64 0
FLAG 960 176 Vnn
FLAG 960 240 0
SYMBOL njf 1040 144 R0
SYMATTR InstName J1
SYMATTR Value JFET
SYMBOL res 1072 304 R0
SYMATTR InstName R2
SYMATTR Value {R2}
SYMBOL res 1184 -32 R0
SYMATTR InstName R1
SYMATTR Value {R1}
SYMBOL npn 1136 224 R0
SYMATTR InstName Q1
SYMATTR Value TBJ
SYMBOL res 1072 448 R0
SYMATTR InstName RL
SYMATTR Value {RL}
SYMBOL voltage 1376 80 R0
WINDOW 123 0 0 Left 0
WINDOW 39 0 0 Left 0
SYMATTR InstName V1
SYMATTR Value {Vs}
SYMBOL voltage 1376 192 R0
WINDOW 123 0 0 Left 0
WINDOW 39 0 0 Left 0
SYMATTR InstName V2
SYMATTR Value {Vs}
SYMBOL voltage 848 288 R0
WINDOW 123 0 0 Left 0
WINDOW 39 0 0 Left 0
SYMATTR InstName V3
SYMATTR Value {Vi}
SYMBOL OpAmps\\UniversalOpAmp2 960 208 M180
WINDOW 0 27 36 Left 2
SYMATTR InstName U2
TEXT 344 -56 Left 2 !.op
TEXT 344 8 Left 2 !.model JFET NJF(Beta=4m Vto=-3)
TEXT 344 -24 Left 2 !.param Vi=-1.75 Vs=20 R1=100 R2=3.9k RL=36
TEXT 344 40 Left 2 !.model TBJ NPN(IS=10f BF=75)
