Version 4
SHEET 1 968 680
WIRE -64 80 -192 80
WIRE 80 80 16 80
WIRE 160 80 80 80
WIRE 320 80 240 80
WIRE -64 208 -112 208
WIRE 80 208 80 80
WIRE 80 208 16 208
WIRE 128 208 80 208
WIRE 480 208 480 192
WIRE 480 208 432 208
WIRE 320 224 320 80
WIRE 320 224 192 224
WIRE 432 224 432 208
WIRE 128 240 80 240
WIRE 480 240 480 208
WIRE 320 256 320 224
WIRE -192 272 -192 80
WIRE -112 272 -112 208
WIRE 80 304 80 240
WIRE -192 368 -192 352
WIRE -112 368 -112 352
WIRE 320 368 320 336
FLAG 480 112 Vpp
FLAG 432 224 0
FLAG 480 320 Vnn
FLAG 320 368 0
FLAG -112 368 0
FLAG 160 192 Vpp
FLAG 160 256 Vnn
FLAG -192 368 0
FLAG 320 224 o
FLAG 80 304 0
SYMBOL voltage 480 96 R0
WINDOW 123 0 0 Left 0
WINDOW 39 0 0 Left 0
WINDOW 0 44 42 Left 2
WINDOW 3 39 70 Left 2
SYMATTR InstName Vs1
SYMATTR Value {Vs}
SYMBOL voltage 480 224 R0
WINDOW 123 0 0 Left 0
WINDOW 39 0 0 Left 0
WINDOW 0 45 30 Left 2
WINDOW 3 41 58 Left 2
SYMATTR InstName Vs2
SYMATTR Value {Vs}
SYMBOL res 304 240 R0
WINDOW 0 49 38 Left 2
WINDOW 3 36 67 Left 2
SYMATTR InstName RL
SYMATTR Value {RL}
SYMBOL voltage -192 256 R0
WINDOW 3 -98 74 Left 2
WINDOW 123 0 0 Left 0
WINDOW 39 0 0 Left 0
WINDOW 0 -86 45 Left 2
SYMATTR Value {V1}
SYMATTR InstName V1
SYMBOL Opamps\\UniversalOpamp2 160 224 R0
SYMATTR InstName U1
SYMBOL res -80 96 R270
WINDOW 0 32 56 VTop 2
WINDOW 3 0 56 VBottom 2
SYMATTR InstName R1
SYMATTR Value {R1}
SYMBOL res -80 224 R270
WINDOW 0 32 56 VTop 2
WINDOW 3 0 56 VBottom 2
SYMATTR InstName R2
SYMATTR Value {R1}
SYMBOL res 144 96 R270
WINDOW 0 32 56 VTop 2
WINDOW 3 0 56 VBottom 2
SYMATTR InstName R3
SYMATTR Value {R2}
SYMBOL voltage -112 256 R0
WINDOW 3 39 73 Left 2
WINDOW 123 0 0 Left 0
WINDOW 39 0 0 Left 0
WINDOW 0 54 46 Left 2
SYMATTR Value {V2}
SYMATTR InstName V2
TEXT -264 424 Left 2 !.param Vs=?? V1=?? V2=?? R1=?? R2=?? RL=??
TEXT 216 368 Left 2 !.op
TEXT -280 -72 Left 2 !;.meas G param V(o)/V(i)
