Version 4
SHEET 1 968 680
WIRE 144 80 96 80
WIRE 256 80 224 80
WIRE 96 192 96 80
WIRE -16 208 -64 208
WIRE 96 208 96 192
WIRE 96 208 64 208
WIRE 128 208 96 208
WIRE 512 208 512 192
WIRE 512 208 464 208
WIRE -64 224 -64 208
WIRE 256 224 256 80
WIRE 256 224 192 224
WIRE 320 224 256 224
WIRE 464 224 464 208
WIRE 128 240 80 240
WIRE 512 240 512 208
WIRE 320 256 320 224
WIRE 80 272 80 240
WIRE 80 368 80 352
WIRE 320 368 320 336
FLAG 512 112 Vpp
FLAG 464 224 0
FLAG 512 320 Vnn
FLAG 320 368 0
FLAG 80 368 0
FLAG 160 192 Vpp
FLAG 160 256 Vnn
FLAG -64 224 0
FLAG 320 224 o
FLAG 80 240 i
FLAG 96 192 -
SYMBOL voltage 512 96 R0
WINDOW 123 0 0 Left 0
WINDOW 39 0 0 Left 0
WINDOW 0 54 34 Left 2
WINDOW 3 45 64 Left 2
SYMATTR InstName Vs1
SYMATTR Value {Vs}
SYMBOL voltage 512 224 R0
WINDOW 123 0 0 Left 0
WINDOW 39 0 0 Left 0
WINDOW 0 49 36 Left 2
WINDOW 3 49 66 Left 2
SYMATTR InstName Vs2
SYMATTR Value {Vs}
SYMBOL res 304 240 R0
WINDOW 0 51 43 Left 2
WINDOW 3 39 72 Left 2
SYMATTR InstName RL
SYMATTR Value {RL}
SYMBOL voltage 80 256 R0
WINDOW 3 -102 64 Left 2
WINDOW 123 0 0 Left 0
WINDOW 39 0 0 Left 0
WINDOW 0 -91 37 Left 2
SYMATTR Value {Vi}
SYMATTR InstName Vi
SYMBOL Opamps\\UniversalOpamp2 160 224 R0
SYMATTR InstName U1
SYMBOL res 80 192 R90
WINDOW 0 0 56 VBottom 2
WINDOW 3 32 56 VTop 2
SYMATTR InstName R1
SYMATTR Value {R1}
SYMBOL res 240 64 R90
WINDOW 0 0 56 VBottom 2
WINDOW 3 32 56 VTop 2
SYMATTR InstName R2
SYMATTR Value {R2}
TEXT -48 416 Left 2 !.param Vs=?? Vi=?? R1=?? R2=?? RL=??
TEXT -40 384 Left 2 !.op
TEXT -280 -72 Left 2 !.meas G param V(o)/V(i)
