Version 4
SHEET 1 968 680
WIRE -48 80 -128 80
WIRE 80 80 32 80
WIRE 176 80 80 80
WIRE 320 80 256 80
WIRE 80 208 80 80
WIRE 128 208 80 208
WIRE 320 224 320 80
WIRE 320 224 192 224
WIRE 464 224 464 192
WIRE 464 224 416 224
WIRE 48 240 -32 240
WIRE 80 240 48 240
WIRE 128 240 80 240
WIRE 416 240 416 224
WIRE 464 256 464 224
WIRE -32 272 -32 240
WIRE 80 368 80 240
WIRE 160 368 80 368
WIRE 320 368 320 224
WIRE 320 368 240 368
WIRE -32 384 -32 352
FLAG 464 112 Vpp
FLAG 416 240 0
FLAG 464 336 Vnn
FLAG 160 192 Vpp
FLAG 160 256 Vnn
FLAG -32 384 0
FLAG 320 224 o
FLAG 80 80 neg
FLAG -128 80 0
FLAG 48 240 pos
SYMBOL voltage 464 96 R0
WINDOW 123 0 0 Left 0
WINDOW 39 0 0 Left 0
WINDOW 0 43 35 Left 2
WINDOW 3 38 67 Left 2
SYMATTR InstName Vs1
SYMATTR Value {Vs}
SYMBOL voltage 464 240 R0
WINDOW 123 0 0 Left 0
WINDOW 39 0 0 Left 0
WINDOW 0 51 39 Left 2
WINDOW 3 44 69 Left 2
SYMATTR InstName Vs2
SYMATTR Value {Vs}
SYMBOL voltage -32 256 R0
WINDOW 3 -98 74 Left 2
WINDOW 123 0 0 Left 0
WINDOW 39 0 0 Left 0
WINDOW 0 -86 45 Left 2
SYMATTR Value {Vi}
SYMATTR InstName Vi
SYMBOL Opamps\\UniversalOpamp2 160 224 R0
SYMATTR InstName U1
SYMBOL res 48 64 R90
WINDOW 0 0 56 VBottom 2
WINDOW 3 32 56 VTop 2
SYMATTR InstName R1
SYMATTR Value {R1}
SYMBOL res 272 96 M270
WINDOW 0 32 56 VTop 2
WINDOW 3 0 56 VBottom 2
SYMATTR InstName R2
SYMATTR Value {R2}
SYMBOL res 256 384 M270
WINDOW 0 32 56 VTop 2
WINDOW 3 0 56 VBottom 2
SYMATTR InstName R3
SYMATTR Value {R3}
TEXT -280 -24 Left 2 !.param Vs=15 Vi=1 R1=2.7k R2=3.3k R3=10k
TEXT -280 8 Left 2 !.op
TEXT -280 -72 Left 2 !.meas Zi param -V(pos)/I(R3)
