Version 4
SHEET 1 1196 1248
WIRE -560 768 -720 768
WIRE -400 768 -560 768
WIRE -240 768 -400 768
WIRE -96 768 -240 768
WIRE -560 784 -560 768
WIRE -400 784 -400 768
WIRE -240 784 -240 768
WIRE -96 784 -96 768
WIRE -720 800 -720 768
WIRE -96 880 -96 864
WIRE -720 912 -720 880
WIRE -560 928 -560 864
WIRE -528 928 -560 928
WIRE -400 928 -400 864
WIRE -400 928 -464 928
WIRE -240 928 -240 864
WIRE -208 928 -240 928
WIRE -96 928 -96 880
WIRE -96 928 -144 928
WIRE -560 976 -560 928
WIRE -96 976 -96 928
WIRE -464 1024 -496 1024
WIRE -368 1024 -240 928
WIRE -368 1024 -464 1024
WIRE -240 1024 -400 928
WIRE -224 1024 -240 1024
WIRE -160 1024 -224 1024
WIRE -560 1088 -560 1072
WIRE -96 1088 -96 1072
FLAG -96 1088 0
FLAG -560 1088 0
FLAG -720 912 0
FLAG -96 880 out
FLAG -224 1024 b1
FLAG -464 1024 b2
SYMBOL RES -576 768 R0
WINDOW 0 46 40 Left 2
SYMATTR InstName R1
SYMATTR Value {Rc}
SYMBOL res -112 768 R0
WINDOW 0 46 47 Left 2
SYMATTR InstName R2
SYMATTR Value {Rc}
SYMBOL res -416 768 R0
WINDOW 0 47 40 Left 2
SYMATTR InstName R3
SYMATTR Value {Rr}
SYMBOL res -256 768 R0
WINDOW 0 44 42 Left 2
SYMATTR InstName R4
SYMATTR Value {Rr}
SYMBOL cap -464 912 R90
WINDOW 0 0 32 VBottom 2
WINDOW 3 32 32 VTop 2
SYMATTR InstName C1
SYMATTR Value {Cr}
SYMBOL cap -144 912 R90
WINDOW 0 0 32 VBottom 2
WINDOW 3 32 32 VTop 2
SYMATTR InstName C2
SYMATTR Value {Cr}
SYMBOL VOLTAGE -720 784 R0
WINDOW 0 49 43 Left 2
WINDOW 3 34 78 Left 2
SYMATTR InstName V1
SYMATTR Value {Vcc}
SYMBOL NPN -160 976 R0
SYMATTR InstName Q1
SYMATTR Value TBJ
SYMBOL npn -496 976 M0
SYMATTR InstName Q2
SYMATTR Value TBJ
TEXT -504 1096 Left 2 !.tran 500m startup
TEXT 136 912 Left 2 !.meas tran Tf1 find time when V(out)=Vcc/2 fall 3\n.meas tran Tf2 find time when V(out)=Vcc/2 fall 4\n.meas tran fosc param 1/(Tf2-Tf1)
TEXT -504 1128 Left 2 !.param Vcc=?? Rc=?? Rr=?? Cr=??
TEXT -504 1160 Left 2 !.model TBJ NPN(BF=?? TF=?? TF=??)
TEXT 392 496 Left 2 !.param Vcc=2.000e+01 Rc=5.100e+02 Rr=4.300e+04 Cr=2.700e-07\n.model TBJ NPN(BF=3.500e+02 TF=1.700e-10 TF=1.300e-10)
