Version 4
SHEET 1 968 680
WIRE 128 64 64 64
WIRE 288 64 208 64
WIRE -144 128 -208 128
WIRE -32 128 -64 128
WIRE 64 128 64 64
WIRE 64 128 32 128
WIRE 496 192 448 192
WIRE 64 208 64 128
WIRE 128 208 64 208
WIRE 448 208 448 192
WIRE -208 224 -208 128
WIRE 288 224 288 64
WIRE 288 224 192 224
WIRE 496 224 496 192
WIRE 128 240 64 240
WIRE 288 256 288 224
WIRE 64 288 64 240
WIRE -208 368 -208 304
WIRE 288 368 288 336
FLAG 496 112 Vpp
FLAG 448 208 0
FLAG 496 304 Vnn
FLAG 288 368 0
FLAG -208 368 0
FLAG 160 192 Vpp
FLAG 160 256 Vnn
FLAG 64 288 0
FLAG 288 224 o
FLAG -208 128 i
SYMBOL voltage 496 96 R0
WINDOW 123 0 0 Left 0
WINDOW 39 0 0 Left 0
SYMATTR InstName V1
SYMATTR Value {Vs}
SYMBOL voltage 496 208 R0
WINDOW 123 0 0 Left 0
WINDOW 39 0 0 Left 0
SYMATTR InstName V2
SYMATTR Value {Vs}
SYMBOL res 272 240 R0
SYMATTR InstName RL
SYMATTR Value {RL}
SYMBOL voltage -208 208 R0
WINDOW 3 47 64 Left 2
WINDOW 123 0 0 Left 0
WINDOW 39 0 0 Left 0
WINDOW 0 50 30 Left 2
SYMATTR Value AC 1.
SYMATTR InstName Vi
SYMBOL Opamps\\UniversalOpamp2 160 224 R0
SYMATTR InstName U1
SYMBOL cap 32 112 R90
WINDOW 0 0 32 VBottom 2
WINDOW 3 32 32 VTop 2
SYMATTR InstName C1
SYMATTR Value {C1}
SYMBOL res -48 112 R90
WINDOW 0 0 56 VBottom 2
WINDOW 3 32 56 VTop 2
SYMATTR InstName R1
SYMATTR Value {R1}
SYMBOL res 224 48 R90
WINDOW 0 0 56 VBottom 2
WINDOW 3 32 56 VTop 2
SYMATTR InstName R2
SYMATTR Value {R2}
TEXT -224 416 Left 2 !.param Vs=?? R1=?? R2=?? C1=?? RL=??
TEXT -392 -72 Left 2 !;tran 0.001 0.005 0
TEXT -152 352 Left 2 !.ac dec 10 1 100k
